Circuit: * C:\Users\alexa\git\numpy_ltspice_filter\filter_circuit.asc

V1: Removing PWL point (0.0001001,0)
V1: Removing PWL point (0.0101101,1)
V1: Removing PWL point (0.0301301,0)
V1: Removing PWL point (0.0401401,2.5)
V1: Removing PWL point (0.0701702,0)
.OP point found by inspection.

Date: Mon Nov 14 14:55:15 2022
Total elapsed time: 0.048 seconds.

tnom = 27
temp = 27
method = modified trap
totiter = 2152
traniter = 2152
tranpoints = 1077
accept = 1072
rejected = 5
matrix size = 4
fillins = 0
solver = Normal
Matrix Compiler1: 100 bytes object code size  0.1/0.0/[0.0]
Matrix Compiler2: off  [0.0]/0.0/0.0

